Circuit: * C:\Users\Lorne\Desktop\Personal Projects\Currently Active\FWA 2020 - Compass Badge\Electrical\Simulations\FWA_2020_Compass_INT_MUX_Simulation.asc

WARNING: Less than two connections to node ATTINY_VIL.  This node is used by B1.
WARNING: Less than two connections to node ATTINY_VIH.  This node is used by B2.
Direct Newton iteration for .op point succeeded.
.step run=1 rod=50
.step run=2 rod=50
.step run=3 rod=50
.step run=4 rod=50
.step run=5 rod=50
.step run=6 rod=50
.step run=7 rod=50
.step run=8 rod=50
.step run=9 rod=50
.step run=10 rod=50
.step run=11 rod=50
.step run=12 rod=50
.step run=13 rod=50
.step run=14 rod=50
.step run=15 rod=50
.step run=16 rod=50
.step run=17 rod=50
.step run=18 rod=50
.step run=19 rod=50
.step run=20 rod=50
.step run=21 rod=50
.step run=22 rod=50
.step run=23 rod=50
.step run=24 rod=50
.step run=25 rod=50
.step run=26 rod=50
.step run=27 rod=50
.step run=28 rod=50
.step run=29 rod=50
.step run=30 rod=50
.step run=31 rod=50
.step run=32 rod=50
.step run=33 rod=50
.step run=34 rod=50
.step run=35 rod=50
.step run=36 rod=50
.step run=37 rod=50
.step run=38 rod=50
.step run=39 rod=50
.step run=40 rod=50
.step run=41 rod=50
.step run=42 rod=50
.step run=43 rod=50
.step run=44 rod=50
.step run=45 rod=50
.step run=46 rod=50
.step run=47 rod=50
.step run=48 rod=50
.step run=49 rod=50
.step run=50 rod=50
.step run=51 rod=50
.step run=52 rod=50
.step run=53 rod=50
.step run=54 rod=50
.step run=55 rod=50
.step run=56 rod=50
.step run=57 rod=50
.step run=58 rod=50
.step run=59 rod=50
.step run=60 rod=50
.step run=61 rod=50
.step run=62 rod=50
.step run=63 rod=50
.step run=64 rod=50
.step run=65 rod=50
.step run=66 rod=50
.step run=67 rod=50
.step run=68 rod=50
.step run=69 rod=50
.step run=70 rod=50
.step run=71 rod=50
.step run=72 rod=50
.step run=73 rod=50
.step run=74 rod=50
.step run=75 rod=50
.step run=76 rod=50
.step run=77 rod=50
.step run=78 rod=50
.step run=79 rod=50
.step run=80 rod=50
.step run=81 rod=50
.step run=82 rod=50
.step run=83 rod=50
.step run=84 rod=50
.step run=85 rod=50
.step run=86 rod=50
.step run=87 rod=50
.step run=88 rod=50
.step run=89 rod=50
.step run=90 rod=50
.step run=91 rod=50
.step run=92 rod=50
.step run=93 rod=50
.step run=94 rod=50
.step run=95 rod=50
.step run=96 rod=50
.step run=97 rod=50
.step run=98 rod=50
.step run=99 rod=50
.step run=100 rod=50
.step run=101 rod=50
.step run=102 rod=50
.step run=103 rod=50
.step run=104 rod=50
.step run=105 rod=50
.step run=106 rod=50
.step run=107 rod=50
.step run=108 rod=50
.step run=109 rod=50
.step run=110 rod=50
.step run=111 rod=50
.step run=112 rod=50
.step run=113 rod=50
.step run=114 rod=50
.step run=115 rod=50
.step run=116 rod=50
.step run=117 rod=50
.step run=118 rod=50
.step run=119 rod=50
.step run=120 rod=50
.step run=121 rod=50
.step run=122 rod=50
.step run=123 rod=50
.step run=124 rod=50
.step run=125 rod=50
.step run=126 rod=50
.step run=127 rod=50
.step run=128 rod=50
.step run=129 rod=50
.step run=130 rod=50
.step run=131 rod=50
.step run=132 rod=50
.step run=133 rod=50
.step run=134 rod=50
.step run=135 rod=50
.step run=136 rod=50
.step run=137 rod=50
.step run=138 rod=50
.step run=139 rod=50
.step run=140 rod=50
.step run=141 rod=50
.step run=142 rod=50
.step run=143 rod=50
.step run=144 rod=50
.step run=145 rod=50
.step run=146 rod=50
.step run=147 rod=50
.step run=148 rod=50
.step run=149 rod=50
.step run=150 rod=50
.step run=151 rod=50
.step run=152 rod=50
.step run=153 rod=50
.step run=154 rod=50
.step run=155 rod=50
.step run=156 rod=50
.step run=157 rod=50
.step run=158 rod=50
.step run=159 rod=50
.step run=160 rod=50
.step run=161 rod=50
.step run=162 rod=50
.step run=163 rod=50
.step run=164 rod=50
.step run=165 rod=50
.step run=166 rod=50
.step run=167 rod=50
.step run=168 rod=50
.step run=169 rod=50
.step run=170 rod=50
.step run=171 rod=50
.step run=172 rod=50
.step run=173 rod=50
.step run=174 rod=50
.step run=175 rod=50
.step run=176 rod=50
.step run=177 rod=50
.step run=178 rod=50
.step run=179 rod=50
.step run=180 rod=50
.step run=181 rod=50
.step run=182 rod=50
.step run=183 rod=50
.step run=184 rod=50
.step run=185 rod=50
.step run=186 rod=50
.step run=187 rod=50
.step run=188 rod=50
.step run=189 rod=50
.step run=190 rod=50
.step run=191 rod=50
.step run=192 rod=50
.step run=193 rod=50
.step run=194 rod=50
.step run=195 rod=50
.step run=196 rod=50
.step run=197 rod=50
.step run=198 rod=50
.step run=199 rod=50
.step run=200 rod=50
.step run=201 rod=50
.step run=202 rod=50
.step run=203 rod=50
.step run=204 rod=50
.step run=205 rod=50
.step run=206 rod=50
.step run=207 rod=50
.step run=208 rod=50
.step run=209 rod=50
.step run=210 rod=50
.step run=211 rod=50
.step run=212 rod=50
.step run=213 rod=50
.step run=214 rod=50
.step run=215 rod=50
.step run=216 rod=50
.step run=217 rod=50
.step run=218 rod=50
.step run=219 rod=50
.step run=220 rod=50
.step run=221 rod=50
.step run=222 rod=50
.step run=223 rod=50
.step run=224 rod=50
.step run=225 rod=50
.step run=226 rod=50
.step run=227 rod=50
.step run=228 rod=50
.step run=229 rod=50
.step run=230 rod=50
.step run=231 rod=50
.step run=232 rod=50
.step run=233 rod=50
.step run=234 rod=50
.step run=235 rod=50
.step run=236 rod=50
.step run=237 rod=50
.step run=238 rod=50
.step run=239 rod=50
.step run=240 rod=50
.step run=241 rod=50
.step run=242 rod=50
.step run=243 rod=50
.step run=244 rod=50
.step run=245 rod=50
.step run=246 rod=50
.step run=247 rod=50
.step run=248 rod=50
.step run=249 rod=50
.step run=250 rod=50
.step run=251 rod=50
.step run=252 rod=50
.step run=253 rod=50
.step run=254 rod=50
.step run=255 rod=50
.step run=256 rod=50
.step run=257 rod=50
.step run=258 rod=50
.step run=259 rod=50
.step run=260 rod=50
.step run=261 rod=50
.step run=262 rod=50
.step run=263 rod=50
.step run=264 rod=50
.step run=265 rod=50
.step run=266 rod=50
.step run=267 rod=50
.step run=268 rod=50
.step run=269 rod=50
.step run=270 rod=50
.step run=271 rod=50
.step run=272 rod=50
.step run=273 rod=50
.step run=274 rod=50
.step run=275 rod=50
.step run=276 rod=50
.step run=277 rod=50
.step run=278 rod=50
.step run=279 rod=50
.step run=280 rod=50
.step run=281 rod=50
.step run=282 rod=50
.step run=283 rod=50
.step run=284 rod=50
.step run=285 rod=50
.step run=286 rod=50
.step run=287 rod=50
.step run=288 rod=50
.step run=289 rod=50
.step run=290 rod=50
.step run=291 rod=50
.step run=292 rod=50
.step run=293 rod=50
.step run=294 rod=50
.step run=295 rod=50
.step run=296 rod=50
.step run=297 rod=50
.step run=298 rod=50
.step run=299 rod=50
.step run=300 rod=50
.step run=301 rod=50
.step run=302 rod=50
.step run=303 rod=50
.step run=304 rod=50
.step run=305 rod=50
.step run=306 rod=50
.step run=307 rod=50
.step run=308 rod=50
.step run=309 rod=50
.step run=310 rod=50
.step run=311 rod=50
.step run=312 rod=50
.step run=313 rod=50
.step run=314 rod=50
.step run=315 rod=50
.step run=316 rod=50
.step run=317 rod=50
.step run=318 rod=50
.step run=319 rod=50
.step run=320 rod=50
.step run=321 rod=50
.step run=322 rod=50
.step run=323 rod=50
.step run=324 rod=50
.step run=325 rod=50
.step run=326 rod=50
.step run=327 rod=50
.step run=328 rod=50
.step run=329 rod=50
.step run=330 rod=50
.step run=331 rod=50
.step run=332 rod=50
.step run=333 rod=50
.step run=334 rod=50
.step run=335 rod=50
.step run=336 rod=50
.step run=337 rod=50
.step run=338 rod=50
.step run=339 rod=50
.step run=340 rod=50
.step run=341 rod=50
.step run=342 rod=50
.step run=343 rod=50
.step run=344 rod=50
.step run=345 rod=50
.step run=346 rod=50
.step run=347 rod=50
.step run=348 rod=50
.step run=349 rod=50
.step run=350 rod=50
.step run=351 rod=50
.step run=352 rod=50
.step run=353 rod=50
.step run=354 rod=50
.step run=355 rod=50
.step run=356 rod=50
.step run=357 rod=50
.step run=358 rod=50
.step run=359 rod=50
.step run=360 rod=50
.step run=361 rod=50
.step run=362 rod=50
.step run=363 rod=50
.step run=364 rod=50
.step run=365 rod=50
.step run=366 rod=50
.step run=367 rod=50
.step run=368 rod=50
.step run=369 rod=50
.step run=370 rod=50
.step run=371 rod=50
.step run=372 rod=50
.step run=373 rod=50
.step run=374 rod=50
.step run=375 rod=50
.step run=376 rod=50
.step run=377 rod=50
.step run=378 rod=50
.step run=379 rod=50
.step run=380 rod=50
.step run=381 rod=50
.step run=382 rod=50
.step run=383 rod=50
.step run=384 rod=50
.step run=385 rod=50
.step run=386 rod=50
.step run=387 rod=50
.step run=388 rod=50
.step run=389 rod=50
.step run=390 rod=50
.step run=391 rod=50
.step run=392 rod=50
.step run=393 rod=50
.step run=394 rod=50
.step run=395 rod=50
.step run=396 rod=50
.step run=397 rod=50
.step run=398 rod=50
.step run=399 rod=50
.step run=400 rod=50
.step run=401 rod=50
.step run=402 rod=50
.step run=403 rod=50
.step run=404 rod=50
.step run=405 rod=50
.step run=406 rod=50
.step run=407 rod=50
.step run=408 rod=50
.step run=409 rod=50
.step run=410 rod=50
.step run=411 rod=50
.step run=412 rod=50
.step run=413 rod=50
.step run=414 rod=50
.step run=415 rod=50
.step run=416 rod=50
.step run=417 rod=50
.step run=418 rod=50
.step run=419 rod=50
.step run=420 rod=50
.step run=421 rod=50
.step run=422 rod=50
.step run=423 rod=50
.step run=424 rod=50
.step run=425 rod=50
.step run=426 rod=50
.step run=427 rod=50
.step run=428 rod=50
.step run=429 rod=50
.step run=430 rod=50
.step run=431 rod=50
.step run=432 rod=50
.step run=433 rod=50
.step run=434 rod=50
.step run=435 rod=50
.step run=436 rod=50
.step run=437 rod=50
.step run=438 rod=50
.step run=439 rod=50
.step run=440 rod=50
.step run=441 rod=50
.step run=442 rod=50
.step run=443 rod=50
.step run=444 rod=50
.step run=445 rod=50
.step run=446 rod=50
.step run=447 rod=50
.step run=448 rod=50
.step run=449 rod=50
.step run=450 rod=50
.step run=451 rod=50
.step run=452 rod=50
.step run=453 rod=50
.step run=454 rod=50
.step run=455 rod=50
.step run=456 rod=50
.step run=457 rod=50
.step run=458 rod=50
.step run=459 rod=50
.step run=460 rod=50
.step run=461 rod=50
.step run=462 rod=50
.step run=463 rod=50
.step run=464 rod=50
.step run=465 rod=50
.step run=466 rod=50
.step run=467 rod=50
.step run=468 rod=50
.step run=469 rod=50
.step run=470 rod=50
.step run=471 rod=50
.step run=472 rod=50
.step run=473 rod=50
.step run=474 rod=50
.step run=475 rod=50
.step run=476 rod=50
.step run=477 rod=50
.step run=478 rod=50
.step run=479 rod=50
.step run=480 rod=50
.step run=481 rod=50
.step run=482 rod=50
.step run=483 rod=50
.step run=484 rod=50
.step run=485 rod=50
.step run=486 rod=50
.step run=487 rod=50
.step run=488 rod=50
.step run=489 rod=50
.step run=490 rod=50
.step run=491 rod=50
.step run=492 rod=50
.step run=493 rod=50
.step run=494 rod=50
.step run=495 rod=50
.step run=496 rod=50
.step run=497 rod=50
.step run=498 rod=50
.step run=499 rod=50
.step run=500 rod=50
.step run=501 rod=50
.step run=502 rod=50
.step run=503 rod=50
.step run=504 rod=50
.step run=505 rod=50
.step run=506 rod=50
.step run=507 rod=50
.step run=508 rod=50
.step run=509 rod=50
.step run=510 rod=50
.step run=511 rod=50
.step run=512 rod=50
.step run=513 rod=50
.step run=514 rod=50
.step run=515 rod=50
.step run=516 rod=50
.step run=517 rod=50
.step run=518 rod=50
.step run=519 rod=50
.step run=520 rod=50
.step run=521 rod=50
.step run=522 rod=50
.step run=523 rod=50
.step run=524 rod=50
.step run=525 rod=50
.step run=526 rod=50
.step run=527 rod=50
.step run=528 rod=50
.step run=529 rod=50
.step run=530 rod=50
.step run=531 rod=50
.step run=532 rod=50
.step run=533 rod=50
.step run=534 rod=50
.step run=535 rod=50
.step run=536 rod=50
.step run=537 rod=50
.step run=538 rod=50
.step run=539 rod=50
.step run=540 rod=50
.step run=541 rod=50
.step run=542 rod=50
.step run=543 rod=50
.step run=544 rod=50
.step run=545 rod=50
.step run=546 rod=50
.step run=547 rod=50
.step run=548 rod=50
.step run=549 rod=50
.step run=550 rod=50
.step run=551 rod=50
.step run=552 rod=50
.step run=553 rod=50
.step run=554 rod=50
.step run=555 rod=50
.step run=556 rod=50
.step run=557 rod=50
.step run=558 rod=50
.step run=559 rod=50
.step run=560 rod=50
.step run=561 rod=50
.step run=562 rod=50
.step run=563 rod=50
.step run=564 rod=50
.step run=565 rod=50
.step run=566 rod=50
.step run=567 rod=50
.step run=568 rod=50
.step run=569 rod=50
.step run=570 rod=50
.step run=571 rod=50
.step run=572 rod=50
.step run=573 rod=50
.step run=574 rod=50
.step run=575 rod=50
.step run=576 rod=50
.step run=577 rod=50
.step run=578 rod=50
.step run=579 rod=50
.step run=580 rod=50
.step run=581 rod=50
.step run=582 rod=50
.step run=583 rod=50
.step run=584 rod=50
.step run=585 rod=50
.step run=586 rod=50
.step run=587 rod=50
.step run=588 rod=50
.step run=589 rod=50
.step run=590 rod=50
.step run=591 rod=50
.step run=592 rod=50
.step run=593 rod=50
.step run=594 rod=50
.step run=595 rod=50
.step run=596 rod=50
.step run=597 rod=50
.step run=598 rod=50
.step run=599 rod=50
.step run=600 rod=50
.step run=601 rod=50
.step run=602 rod=50
.step run=603 rod=50
.step run=604 rod=50
.step run=605 rod=50
.step run=606 rod=50
.step run=607 rod=50
.step run=608 rod=50
.step run=609 rod=50
.step run=610 rod=50
.step run=611 rod=50
.step run=612 rod=50
.step run=613 rod=50
.step run=614 rod=50
.step run=615 rod=50
.step run=616 rod=50
.step run=617 rod=50
.step run=618 rod=50
.step run=619 rod=50
.step run=620 rod=50
.step run=621 rod=50
.step run=622 rod=50
.step run=623 rod=50
.step run=624 rod=50
.step run=625 rod=50
.step run=626 rod=50
.step run=627 rod=50
.step run=628 rod=50
.step run=629 rod=50
.step run=630 rod=50
.step run=631 rod=50
.step run=632 rod=50
.step run=633 rod=50
.step run=634 rod=50
.step run=635 rod=50
.step run=636 rod=50
.step run=637 rod=50
.step run=638 rod=50
.step run=639 rod=50
.step run=640 rod=50
.step run=641 rod=50
.step run=642 rod=50
.step run=643 rod=50
.step run=644 rod=50
.step run=645 rod=50
.step run=646 rod=50
.step run=647 rod=50
.step run=648 rod=50
.step run=649 rod=50
.step run=650 rod=50
.step run=651 rod=50
.step run=652 rod=50
.step run=653 rod=50
.step run=654 rod=50
.step run=655 rod=50
.step run=656 rod=50
.step run=657 rod=50
.step run=658 rod=50
.step run=659 rod=50
.step run=660 rod=50
.step run=661 rod=50
.step run=662 rod=50
.step run=663 rod=50
.step run=664 rod=50
.step run=665 rod=50
.step run=666 rod=50
.step run=667 rod=50
.step run=668 rod=50
.step run=669 rod=50
.step run=670 rod=50
.step run=671 rod=50
.step run=672 rod=50
.step run=673 rod=50
.step run=674 rod=50
.step run=675 rod=50
.step run=676 rod=50
.step run=677 rod=50
.step run=678 rod=50
.step run=679 rod=50
.step run=680 rod=50
.step run=681 rod=50
.step run=682 rod=50
.step run=683 rod=50
.step run=684 rod=50
.step run=685 rod=50
.step run=686 rod=50
.step run=687 rod=50
.step run=688 rod=50
.step run=689 rod=50
.step run=690 rod=50
.step run=691 rod=50
.step run=692 rod=50
.step run=693 rod=50
.step run=694 rod=50
.step run=695 rod=50
.step run=696 rod=50
.step run=697 rod=50
.step run=698 rod=50
.step run=699 rod=50
.step run=700 rod=50
.step run=701 rod=50
.step run=702 rod=50
.step run=703 rod=50
.step run=704 rod=50
.step run=705 rod=50
.step run=706 rod=50
.step run=707 rod=50
.step run=708 rod=50
.step run=709 rod=50
.step run=710 rod=50
.step run=711 rod=50
.step run=712 rod=50
.step run=713 rod=50
.step run=714 rod=50
.step run=715 rod=50
.step run=716 rod=50
.step run=717 rod=50
.step run=718 rod=50
.step run=719 rod=50
.step run=720 rod=50
.step run=721 rod=50
.step run=722 rod=50
.step run=723 rod=50
.step run=724 rod=50
.step run=725 rod=50
.step run=726 rod=50
.step run=727 rod=50
.step run=728 rod=50
.step run=729 rod=50
.step run=730 rod=50
.step run=731 rod=50
.step run=732 rod=50
.step run=733 rod=50
.step run=734 rod=50
.step run=735 rod=50
.step run=736 rod=50
.step run=737 rod=50
.step run=738 rod=50
.step run=739 rod=50
.step run=740 rod=50
.step run=741 rod=50
.step run=742 rod=50
.step run=743 rod=50
.step run=744 rod=50
.step run=745 rod=50
.step run=746 rod=50
.step run=747 rod=50
.step run=748 rod=50
.step run=749 rod=50
.step run=750 rod=50
.step run=751 rod=50
.step run=752 rod=50
.step run=753 rod=50
.step run=754 rod=50
.step run=755 rod=50
.step run=756 rod=50
.step run=757 rod=50
.step run=758 rod=50
.step run=759 rod=50
.step run=760 rod=50
.step run=761 rod=50
.step run=762 rod=50
.step run=763 rod=50
.step run=764 rod=50
.step run=765 rod=50
.step run=766 rod=50
.step run=767 rod=50
.step run=768 rod=50
.step run=769 rod=50
.step run=770 rod=50
.step run=771 rod=50
.step run=772 rod=50
.step run=773 rod=50
.step run=774 rod=50
.step run=775 rod=50
.step run=776 rod=50
.step run=777 rod=50
.step run=778 rod=50
.step run=779 rod=50
.step run=780 rod=50
.step run=781 rod=50
.step run=782 rod=50
.step run=783 rod=50
.step run=784 rod=50
.step run=785 rod=50
.step run=786 rod=50
.step run=787 rod=50
.step run=788 rod=50
.step run=789 rod=50
.step run=790 rod=50
.step run=791 rod=50
.step run=792 rod=50
.step run=793 rod=50
.step run=794 rod=50
.step run=795 rod=50
.step run=796 rod=50
.step run=797 rod=50
.step run=798 rod=50
.step run=799 rod=50
.step run=800 rod=50
.step run=801 rod=50
.step run=802 rod=50
.step run=803 rod=50
.step run=804 rod=50
.step run=805 rod=50
.step run=806 rod=50
.step run=807 rod=50
.step run=808 rod=50
.step run=809 rod=50
.step run=810 rod=50
.step run=811 rod=50
.step run=812 rod=50
.step run=813 rod=50
.step run=814 rod=50
.step run=815 rod=50
.step run=816 rod=50
.step run=817 rod=50
.step run=818 rod=50
.step run=819 rod=50
.step run=820 rod=50
.step run=821 rod=50
.step run=822 rod=50
.step run=823 rod=50
.step run=824 rod=50
.step run=825 rod=50
.step run=826 rod=50
.step run=827 rod=50
.step run=828 rod=50
.step run=829 rod=50
.step run=830 rod=50
.step run=831 rod=50
.step run=832 rod=50
.step run=833 rod=50
.step run=834 rod=50
.step run=835 rod=50
.step run=836 rod=50
.step run=837 rod=50
.step run=838 rod=50
.step run=839 rod=50
.step run=840 rod=50
.step run=841 rod=50
.step run=842 rod=50
.step run=843 rod=50
.step run=844 rod=50
.step run=845 rod=50
.step run=846 rod=50
.step run=847 rod=50
.step run=848 rod=50
.step run=849 rod=50
.step run=850 rod=50
.step run=851 rod=50
.step run=852 rod=50
.step run=853 rod=50
.step run=854 rod=50
.step run=855 rod=50
.step run=856 rod=50
.step run=857 rod=50
.step run=858 rod=50
.step run=859 rod=50
.step run=860 rod=50
.step run=861 rod=50
.step run=862 rod=50
.step run=863 rod=50
.step run=864 rod=50
.step run=865 rod=50
.step run=866 rod=50
.step run=867 rod=50
.step run=868 rod=50
.step run=869 rod=50
.step run=870 rod=50
.step run=871 rod=50
.step run=872 rod=50
.step run=873 rod=50
.step run=874 rod=50
.step run=875 rod=50
.step run=876 rod=50
.step run=877 rod=50
.step run=878 rod=50
.step run=879 rod=50
.step run=880 rod=50
.step run=881 rod=50
.step run=882 rod=50
.step run=883 rod=50
.step run=884 rod=50
.step run=885 rod=50
.step run=886 rod=50
.step run=887 rod=50
.step run=888 rod=50
.step run=889 rod=50
.step run=890 rod=50
.step run=891 rod=50
.step run=892 rod=50
.step run=893 rod=50
.step run=894 rod=50
.step run=895 rod=50
.step run=896 rod=50
.step run=897 rod=50
.step run=898 rod=50
.step run=899 rod=50
.step run=900 rod=50
.step run=901 rod=50
.step run=902 rod=50
.step run=903 rod=50
.step run=904 rod=50
.step run=905 rod=50
.step run=906 rod=50
.step run=907 rod=50
.step run=908 rod=50
.step run=909 rod=50
.step run=910 rod=50
.step run=911 rod=50
.step run=912 rod=50
.step run=913 rod=50
.step run=914 rod=50
.step run=915 rod=50
.step run=916 rod=50
.step run=917 rod=50
.step run=918 rod=50
.step run=919 rod=50
.step run=920 rod=50
.step run=921 rod=50
.step run=922 rod=50
.step run=923 rod=50
.step run=924 rod=50
.step run=925 rod=50
.step run=926 rod=50
.step run=927 rod=50
.step run=928 rod=50
.step run=929 rod=50
.step run=930 rod=50
.step run=931 rod=50
.step run=932 rod=50
.step run=933 rod=50
.step run=934 rod=50
.step run=935 rod=50
.step run=936 rod=50
.step run=937 rod=50
.step run=938 rod=50
.step run=939 rod=50
.step run=940 rod=50
.step run=941 rod=50
.step run=942 rod=50
.step run=943 rod=50
.step run=944 rod=50
.step run=945 rod=50
.step run=946 rod=50
.step run=947 rod=50
.step run=948 rod=50
.step run=949 rod=50
.step run=950 rod=50
.step run=951 rod=50
.step run=952 rod=50
.step run=953 rod=50
.step run=954 rod=50
.step run=955 rod=50
.step run=956 rod=50
.step run=957 rod=50
.step run=958 rod=50
.step run=959 rod=50
.step run=960 rod=50
.step run=961 rod=50
.step run=962 rod=50
.step run=963 rod=50
.step run=964 rod=50
.step run=965 rod=50
.step run=966 rod=50
.step run=967 rod=50
.step run=968 rod=50
.step run=969 rod=50
.step run=970 rod=50
.step run=971 rod=50
.step run=972 rod=50
.step run=973 rod=50
.step run=974 rod=50
.step run=975 rod=50
.step run=976 rod=50
.step run=977 rod=50
.step run=978 rod=50
.step run=979 rod=50
.step run=980 rod=50
.step run=981 rod=50
.step run=982 rod=50
.step run=983 rod=50
.step run=984 rod=50
.step run=985 rod=50
.step run=986 rod=50
.step run=987 rod=50
.step run=988 rod=50
.step run=989 rod=50
.step run=990 rod=50
.step run=991 rod=50
.step run=992 rod=50
.step run=993 rod=50
.step run=994 rod=50
.step run=995 rod=50
.step run=996 rod=50
.step run=997 rod=50
.step run=998 rod=50
.step run=999 rod=50
.step run=1000 rod=50
.step run=1 rod=200
.step run=2 rod=200
.step run=3 rod=200
.step run=4 rod=200
.step run=5 rod=200
.step run=6 rod=200
.step run=7 rod=200
.step run=8 rod=200
.step run=9 rod=200
.step run=10 rod=200
.step run=11 rod=200
.step run=12 rod=200
.step run=13 rod=200
.step run=14 rod=200
.step run=15 rod=200
.step run=16 rod=200
.step run=17 rod=200
.step run=18 rod=200
.step run=19 rod=200
.step run=20 rod=200
.step run=21 rod=200
.step run=22 rod=200
.step run=23 rod=200
.step run=24 rod=200
.step run=25 rod=200
.step run=26 rod=200
.step run=27 rod=200
.step run=28 rod=200
.step run=29 rod=200
.step run=30 rod=200
.step run=31 rod=200
.step run=32 rod=200
.step run=33 rod=200
.step run=34 rod=200
.step run=35 rod=200
.step run=36 rod=200
.step run=37 rod=200
.step run=38 rod=200
.step run=39 rod=200
.step run=40 rod=200
.step run=41 rod=200
.step run=42 rod=200
.step run=43 rod=200
.step run=44 rod=200
.step run=45 rod=200
.step run=46 rod=200
.step run=47 rod=200
.step run=48 rod=200
.step run=49 rod=200
.step run=50 rod=200
.step run=51 rod=200
.step run=52 rod=200
.step run=53 rod=200
.step run=54 rod=200
.step run=55 rod=200
.step run=56 rod=200
.step run=57 rod=200
.step run=58 rod=200
.step run=59 rod=200
.step run=60 rod=200
.step run=61 rod=200
.step run=62 rod=200
.step run=63 rod=200
.step run=64 rod=200
.step run=65 rod=200
.step run=66 rod=200
.step run=67 rod=200
.step run=68 rod=200
.step run=69 rod=200
.step run=70 rod=200
.step run=71 rod=200
.step run=72 rod=200
.step run=73 rod=200
.step run=74 rod=200
.step run=75 rod=200
.step run=76 rod=200
.step run=77 rod=200
.step run=78 rod=200
.step run=79 rod=200
.step run=80 rod=200
.step run=81 rod=200
.step run=82 rod=200
.step run=83 rod=200
.step run=84 rod=200
.step run=85 rod=200
.step run=86 rod=200
.step run=87 rod=200
.step run=88 rod=200
.step run=89 rod=200
.step run=90 rod=200
.step run=91 rod=200
.step run=92 rod=200
.step run=93 rod=200
.step run=94 rod=200
.step run=95 rod=200
.step run=96 rod=200
.step run=97 rod=200
.step run=98 rod=200
.step run=99 rod=200
.step run=100 rod=200
.step run=101 rod=200
.step run=102 rod=200
.step run=103 rod=200
.step run=104 rod=200
.step run=105 rod=200
.step run=106 rod=200
.step run=107 rod=200
.step run=108 rod=200
.step run=109 rod=200
.step run=110 rod=200
.step run=111 rod=200
.step run=112 rod=200
.step run=113 rod=200
.step run=114 rod=200
.step run=115 rod=200
.step run=116 rod=200
.step run=117 rod=200
.step run=118 rod=200
.step run=119 rod=200
.step run=120 rod=200
.step run=121 rod=200
.step run=122 rod=200
.step run=123 rod=200
.step run=124 rod=200
.step run=125 rod=200
.step run=126 rod=200
.step run=127 rod=200
.step run=128 rod=200
.step run=129 rod=200
.step run=130 rod=200
.step run=131 rod=200
.step run=132 rod=200
.step run=133 rod=200
.step run=134 rod=200
.step run=135 rod=200
.step run=136 rod=200
.step run=137 rod=200
.step run=138 rod=200
.step run=139 rod=200
.step run=140 rod=200
.step run=141 rod=200
.step run=142 rod=200
.step run=143 rod=200
.step run=144 rod=200
.step run=145 rod=200
.step run=146 rod=200
.step run=147 rod=200
.step run=148 rod=200
.step run=149 rod=200
.step run=150 rod=200
.step run=151 rod=200
.step run=152 rod=200
.step run=153 rod=200
.step run=154 rod=200
.step run=155 rod=200
.step run=156 rod=200
.step run=157 rod=200
.step run=158 rod=200
.step run=159 rod=200
.step run=160 rod=200
.step run=161 rod=200
.step run=162 rod=200
.step run=163 rod=200
.step run=164 rod=200
.step run=165 rod=200
.step run=166 rod=200
.step run=167 rod=200
.step run=168 rod=200
.step run=169 rod=200
.step run=170 rod=200
.step run=171 rod=200
.step run=172 rod=200
.step run=173 rod=200
.step run=174 rod=200
.step run=175 rod=200
.step run=176 rod=200
.step run=177 rod=200
.step run=178 rod=200
.step run=179 rod=200
.step run=180 rod=200
.step run=181 rod=200
.step run=182 rod=200
.step run=183 rod=200
.step run=184 rod=200
.step run=185 rod=200
.step run=186 rod=200
.step run=187 rod=200
.step run=188 rod=200
.step run=189 rod=200
.step run=190 rod=200
.step run=191 rod=200
.step run=192 rod=200
.step run=193 rod=200
.step run=194 rod=200
.step run=195 rod=200
.step run=196 rod=200
.step run=197 rod=200
.step run=198 rod=200
.step run=199 rod=200
.step run=200 rod=200
.step run=201 rod=200
.step run=202 rod=200
.step run=203 rod=200
.step run=204 rod=200
.step run=205 rod=200
.step run=206 rod=200
.step run=207 rod=200
.step run=208 rod=200
.step run=209 rod=200
.step run=210 rod=200
.step run=211 rod=200
.step run=212 rod=200
.step run=213 rod=200
.step run=214 rod=200
.step run=215 rod=200
.step run=216 rod=200
.step run=217 rod=200
.step run=218 rod=200
.step run=219 rod=200
.step run=220 rod=200
.step run=221 rod=200
.step run=222 rod=200
.step run=223 rod=200
.step run=224 rod=200
.step run=225 rod=200
.step run=226 rod=200
.step run=227 rod=200
.step run=228 rod=200
.step run=229 rod=200
.step run=230 rod=200
.step run=231 rod=200
.step run=232 rod=200
.step run=233 rod=200
.step run=234 rod=200
.step run=235 rod=200
.step run=236 rod=200
.step run=237 rod=200
.step run=238 rod=200
.step run=239 rod=200
.step run=240 rod=200
.step run=241 rod=200
.step run=242 rod=200
.step run=243 rod=200
.step run=244 rod=200
.step run=245 rod=200
.step run=246 rod=200
.step run=247 rod=200
.step run=248 rod=200
.step run=249 rod=200
.step run=250 rod=200
.step run=251 rod=200
.step run=252 rod=200
.step run=253 rod=200
.step run=254 rod=200
.step run=255 rod=200
.step run=256 rod=200
.step run=257 rod=200
.step run=258 rod=200
.step run=259 rod=200
.step run=260 rod=200
.step run=261 rod=200
.step run=262 rod=200
.step run=263 rod=200
.step run=264 rod=200
.step run=265 rod=200
.step run=266 rod=200
.step run=267 rod=200
.step run=268 rod=200
.step run=269 rod=200
.step run=270 rod=200
.step run=271 rod=200
.step run=272 rod=200
.step run=273 rod=200
.step run=274 rod=200
.step run=275 rod=200
.step run=276 rod=200
.step run=277 rod=200
.step run=278 rod=200
.step run=279 rod=200
.step run=280 rod=200
.step run=281 rod=200
.step run=282 rod=200
.step run=283 rod=200
.step run=284 rod=200
.step run=285 rod=200
.step run=286 rod=200
.step run=287 rod=200
.step run=288 rod=200
.step run=289 rod=200
.step run=290 rod=200
.step run=291 rod=200
.step run=292 rod=200
.step run=293 rod=200
.step run=294 rod=200
.step run=295 rod=200
.step run=296 rod=200
.step run=297 rod=200
.step run=298 rod=200
.step run=299 rod=200
.step run=300 rod=200
.step run=301 rod=200
.step run=302 rod=200
.step run=303 rod=200
.step run=304 rod=200
.step run=305 rod=200
.step run=306 rod=200
.step run=307 rod=200
.step run=308 rod=200
.step run=309 rod=200
.step run=310 rod=200
.step run=311 rod=200
.step run=312 rod=200
.step run=313 rod=200
.step run=314 rod=200
.step run=315 rod=200
.step run=316 rod=200
.step run=317 rod=200
.step run=318 rod=200
.step run=319 rod=200
.step run=320 rod=200
.step run=321 rod=200
.step run=322 rod=200
.step run=323 rod=200
.step run=324 rod=200
.step run=325 rod=200
.step run=326 rod=200
.step run=327 rod=200
.step run=328 rod=200
.step run=329 rod=200
.step run=330 rod=200
.step run=331 rod=200
.step run=332 rod=200
.step run=333 rod=200
.step run=334 rod=200
.step run=335 rod=200
.step run=336 rod=200
.step run=337 rod=200
.step run=338 rod=200
.step run=339 rod=200
.step run=340 rod=200
.step run=341 rod=200
.step run=342 rod=200
.step run=343 rod=200
.step run=344 rod=200
.step run=345 rod=200
.step run=346 rod=200
.step run=347 rod=200
.step run=348 rod=200
.step run=349 rod=200
.step run=350 rod=200
.step run=351 rod=200
.step run=352 rod=200
.step run=353 rod=200
.step run=354 rod=200
.step run=355 rod=200
.step run=356 rod=200
.step run=357 rod=200
.step run=358 rod=200
.step run=359 rod=200
.step run=360 rod=200
.step run=361 rod=200
.step run=362 rod=200
.step run=363 rod=200
.step run=364 rod=200
.step run=365 rod=200
.step run=366 rod=200
.step run=367 rod=200
.step run=368 rod=200
.step run=369 rod=200
.step run=370 rod=200
.step run=371 rod=200
.step run=372 rod=200
.step run=373 rod=200
.step run=374 rod=200
.step run=375 rod=200
.step run=376 rod=200
.step run=377 rod=200
.step run=378 rod=200
.step run=379 rod=200
.step run=380 rod=200
.step run=381 rod=200
.step run=382 rod=200
.step run=383 rod=200
.step run=384 rod=200
.step run=385 rod=200
.step run=386 rod=200
.step run=387 rod=200
.step run=388 rod=200
.step run=389 rod=200
.step run=390 rod=200
.step run=391 rod=200
.step run=392 rod=200
.step run=393 rod=200
.step run=394 rod=200
.step run=395 rod=200
.step run=396 rod=200
.step run=397 rod=200
.step run=398 rod=200
.step run=399 rod=200
.step run=400 rod=200
.step run=401 rod=200
.step run=402 rod=200
.step run=403 rod=200
.step run=404 rod=200
.step run=405 rod=200
.step run=406 rod=200
.step run=407 rod=200
.step run=408 rod=200
.step run=409 rod=200
.step run=410 rod=200
.step run=411 rod=200
.step run=412 rod=200
.step run=413 rod=200
.step run=414 rod=200
.step run=415 rod=200
.step run=416 rod=200
.step run=417 rod=200
.step run=418 rod=200
.step run=419 rod=200
.step run=420 rod=200
.step run=421 rod=200
.step run=422 rod=200
.step run=423 rod=200
.step run=424 rod=200
.step run=425 rod=200
.step run=426 rod=200
.step run=427 rod=200
.step run=428 rod=200
.step run=429 rod=200
.step run=430 rod=200
.step run=431 rod=200
.step run=432 rod=200
.step run=433 rod=200
.step run=434 rod=200
.step run=435 rod=200
.step run=436 rod=200
.step run=437 rod=200
.step run=438 rod=200
.step run=439 rod=200
.step run=440 rod=200
.step run=441 rod=200
.step run=442 rod=200
.step run=443 rod=200
.step run=444 rod=200
.step run=445 rod=200
.step run=446 rod=200
.step run=447 rod=200
.step run=448 rod=200
.step run=449 rod=200
.step run=450 rod=200
.step run=451 rod=200
.step run=452 rod=200
.step run=453 rod=200
.step run=454 rod=200
.step run=455 rod=200
.step run=456 rod=200
.step run=457 rod=200
.step run=458 rod=200
.step run=459 rod=200
.step run=460 rod=200
.step run=461 rod=200
.step run=462 rod=200
.step run=463 rod=200
.step run=464 rod=200
.step run=465 rod=200
.step run=466 rod=200
.step run=467 rod=200
.step run=468 rod=200
.step run=469 rod=200
.step run=470 rod=200
.step run=471 rod=200
.step run=472 rod=200
.step run=473 rod=200
.step run=474 rod=200
.step run=475 rod=200
.step run=476 rod=200
.step run=477 rod=200
.step run=478 rod=200
.step run=479 rod=200
.step run=480 rod=200
.step run=481 rod=200
.step run=482 rod=200
.step run=483 rod=200
.step run=484 rod=200
.step run=485 rod=200
.step run=486 rod=200
.step run=487 rod=200
.step run=488 rod=200
.step run=489 rod=200
.step run=490 rod=200
.step run=491 rod=200
.step run=492 rod=200
.step run=493 rod=200
.step run=494 rod=200
.step run=495 rod=200
.step run=496 rod=200
.step run=497 rod=200
.step run=498 rod=200
.step run=499 rod=200
.step run=500 rod=200
.step run=501 rod=200
.step run=502 rod=200
.step run=503 rod=200
.step run=504 rod=200
.step run=505 rod=200
.step run=506 rod=200
.step run=507 rod=200
.step run=508 rod=200
.step run=509 rod=200
.step run=510 rod=200
.step run=511 rod=200
.step run=512 rod=200
.step run=513 rod=200
.step run=514 rod=200
.step run=515 rod=200
.step run=516 rod=200
.step run=517 rod=200
.step run=518 rod=200
.step run=519 rod=200
.step run=520 rod=200
.step run=521 rod=200
.step run=522 rod=200
.step run=523 rod=200
.step run=524 rod=200
.step run=525 rod=200
.step run=526 rod=200
.step run=527 rod=200
.step run=528 rod=200
.step run=529 rod=200
.step run=530 rod=200
.step run=531 rod=200
.step run=532 rod=200
.step run=533 rod=200
.step run=534 rod=200
.step run=535 rod=200
.step run=536 rod=200
.step run=537 rod=200
.step run=538 rod=200
.step run=539 rod=200
.step run=540 rod=200
.step run=541 rod=200
.step run=542 rod=200
.step run=543 rod=200
.step run=544 rod=200
.step run=545 rod=200
.step run=546 rod=200
.step run=547 rod=200
.step run=548 rod=200
.step run=549 rod=200
.step run=550 rod=200
.step run=551 rod=200
.step run=552 rod=200
.step run=553 rod=200
.step run=554 rod=200
.step run=555 rod=200
.step run=556 rod=200
.step run=557 rod=200
.step run=558 rod=200
.step run=559 rod=200
.step run=560 rod=200
.step run=561 rod=200
.step run=562 rod=200
.step run=563 rod=200
.step run=564 rod=200
.step run=565 rod=200
.step run=566 rod=200
.step run=567 rod=200
.step run=568 rod=200
.step run=569 rod=200
.step run=570 rod=200
.step run=571 rod=200
.step run=572 rod=200
.step run=573 rod=200
.step run=574 rod=200
.step run=575 rod=200
.step run=576 rod=200
.step run=577 rod=200
.step run=578 rod=200
.step run=579 rod=200
.step run=580 rod=200
.step run=581 rod=200
.step run=582 rod=200
.step run=583 rod=200
.step run=584 rod=200
.step run=585 rod=200
.step run=586 rod=200
.step run=587 rod=200
.step run=588 rod=200
.step run=589 rod=200
.step run=590 rod=200
.step run=591 rod=200
.step run=592 rod=200
.step run=593 rod=200
.step run=594 rod=200
.step run=595 rod=200
.step run=596 rod=200
.step run=597 rod=200
.step run=598 rod=200
.step run=599 rod=200
.step run=600 rod=200
.step run=601 rod=200
.step run=602 rod=200
.step run=603 rod=200
.step run=604 rod=200
.step run=605 rod=200
.step run=606 rod=200
.step run=607 rod=200
.step run=608 rod=200
.step run=609 rod=200
.step run=610 rod=200
.step run=611 rod=200
.step run=612 rod=200
.step run=613 rod=200
.step run=614 rod=200
.step run=615 rod=200
.step run=616 rod=200
.step run=617 rod=200
.step run=618 rod=200
.step run=619 rod=200
.step run=620 rod=200
.step run=621 rod=200
.step run=622 rod=200
.step run=623 rod=200
.step run=624 rod=200
.step run=625 rod=200
.step run=626 rod=200
.step run=627 rod=200
.step run=628 rod=200
.step run=629 rod=200
.step run=630 rod=200
.step run=631 rod=200
.step run=632 rod=200
.step run=633 rod=200
.step run=634 rod=200
.step run=635 rod=200
.step run=636 rod=200
.step run=637 rod=200
.step run=638 rod=200
.step run=639 rod=200
.step run=640 rod=200
.step run=641 rod=200
.step run=642 rod=200
.step run=643 rod=200
.step run=644 rod=200
.step run=645 rod=200
.step run=646 rod=200
.step run=647 rod=200
.step run=648 rod=200
.step run=649 rod=200
.step run=650 rod=200
.step run=651 rod=200
.step run=652 rod=200
.step run=653 rod=200
.step run=654 rod=200
.step run=655 rod=200
.step run=656 rod=200
.step run=657 rod=200
.step run=658 rod=200
.step run=659 rod=200
.step run=660 rod=200
.step run=661 rod=200
.step run=662 rod=200
.step run=663 rod=200
.step run=664 rod=200
.step run=665 rod=200
.step run=666 rod=200
.step run=667 rod=200
.step run=668 rod=200
.step run=669 rod=200
.step run=670 rod=200
.step run=671 rod=200
.step run=672 rod=200
.step run=673 rod=200
.step run=674 rod=200
.step run=675 rod=200
.step run=676 rod=200
.step run=677 rod=200
.step run=678 rod=200
.step run=679 rod=200
.step run=680 rod=200
.step run=681 rod=200
.step run=682 rod=200
.step run=683 rod=200
.step run=684 rod=200
.step run=685 rod=200
.step run=686 rod=200
.step run=687 rod=200
.step run=688 rod=200
.step run=689 rod=200
.step run=690 rod=200
.step run=691 rod=200
.step run=692 rod=200
.step run=693 rod=200
.step run=694 rod=200
.step run=695 rod=200
.step run=696 rod=200
.step run=697 rod=200
.step run=698 rod=200
.step run=699 rod=200
.step run=700 rod=200
.step run=701 rod=200
.step run=702 rod=200
.step run=703 rod=200
.step run=704 rod=200
.step run=705 rod=200
.step run=706 rod=200
.step run=707 rod=200
.step run=708 rod=200
.step run=709 rod=200
.step run=710 rod=200
.step run=711 rod=200
.step run=712 rod=200
.step run=713 rod=200
.step run=714 rod=200
.step run=715 rod=200
.step run=716 rod=200
.step run=717 rod=200
.step run=718 rod=200
.step run=719 rod=200
.step run=720 rod=200
.step run=721 rod=200
.step run=722 rod=200
.step run=723 rod=200
.step run=724 rod=200
.step run=725 rod=200
.step run=726 rod=200
.step run=727 rod=200
.step run=728 rod=200
.step run=729 rod=200
.step run=730 rod=200
.step run=731 rod=200
.step run=732 rod=200
.step run=733 rod=200
.step run=734 rod=200
.step run=735 rod=200
.step run=736 rod=200
.step run=737 rod=200
.step run=738 rod=200
.step run=739 rod=200
.step run=740 rod=200
.step run=741 rod=200
.step run=742 rod=200
.step run=743 rod=200
.step run=744 rod=200
.step run=745 rod=200
.step run=746 rod=200
.step run=747 rod=200
.step run=748 rod=200
.step run=749 rod=200
.step run=750 rod=200
.step run=751 rod=200
.step run=752 rod=200
.step run=753 rod=200
.step run=754 rod=200
.step run=755 rod=200
.step run=756 rod=200
.step run=757 rod=200
.step run=758 rod=200
.step run=759 rod=200
.step run=760 rod=200
.step run=761 rod=200
.step run=762 rod=200
.step run=763 rod=200
.step run=764 rod=200
.step run=765 rod=200
.step run=766 rod=200
.step run=767 rod=200
.step run=768 rod=200
.step run=769 rod=200
.step run=770 rod=200
.step run=771 rod=200
.step run=772 rod=200
.step run=773 rod=200
.step run=774 rod=200
.step run=775 rod=200
.step run=776 rod=200
.step run=777 rod=200
.step run=778 rod=200
.step run=779 rod=200
.step run=780 rod=200
.step run=781 rod=200
.step run=782 rod=200
.step run=783 rod=200
.step run=784 rod=200
.step run=785 rod=200
.step run=786 rod=200
.step run=787 rod=200
.step run=788 rod=200
.step run=789 rod=200
.step run=790 rod=200
.step run=791 rod=200
.step run=792 rod=200
.step run=793 rod=200
.step run=794 rod=200
.step run=795 rod=200
.step run=796 rod=200
.step run=797 rod=200
.step run=798 rod=200
.step run=799 rod=200
.step run=800 rod=200
.step run=801 rod=200
.step run=802 rod=200
.step run=803 rod=200
.step run=804 rod=200
.step run=805 rod=200
.step run=806 rod=200
.step run=807 rod=200
.step run=808 rod=200
.step run=809 rod=200
.step run=810 rod=200
.step run=811 rod=200
.step run=812 rod=200
.step run=813 rod=200
.step run=814 rod=200
.step run=815 rod=200
.step run=816 rod=200
.step run=817 rod=200
.step run=818 rod=200
.step run=819 rod=200
.step run=820 rod=200
.step run=821 rod=200
.step run=822 rod=200
.step run=823 rod=200
.step run=824 rod=200
.step run=825 rod=200
.step run=826 rod=200
.step run=827 rod=200
.step run=828 rod=200
.step run=829 rod=200
.step run=830 rod=200
.step run=831 rod=200
.step run=832 rod=200
.step run=833 rod=200
.step run=834 rod=200
.step run=835 rod=200
.step run=836 rod=200
.step run=837 rod=200
.step run=838 rod=200
.step run=839 rod=200
.step run=840 rod=200
.step run=841 rod=200
.step run=842 rod=200
.step run=843 rod=200
.step run=844 rod=200
.step run=845 rod=200
.step run=846 rod=200
.step run=847 rod=200
.step run=848 rod=200
.step run=849 rod=200
.step run=850 rod=200
.step run=851 rod=200
.step run=852 rod=200
.step run=853 rod=200
.step run=854 rod=200
.step run=855 rod=200
.step run=856 rod=200
.step run=857 rod=200
.step run=858 rod=200
.step run=859 rod=200
.step run=860 rod=200
.step run=861 rod=200
.step run=862 rod=200
.step run=863 rod=200
.step run=864 rod=200
.step run=865 rod=200
.step run=866 rod=200
.step run=867 rod=200
.step run=868 rod=200
.step run=869 rod=200
.step run=870 rod=200
.step run=871 rod=200
.step run=872 rod=200
.step run=873 rod=200
.step run=874 rod=200
.step run=875 rod=200
.step run=876 rod=200
.step run=877 rod=200
.step run=878 rod=200
.step run=879 rod=200
.step run=880 rod=200
.step run=881 rod=200
.step run=882 rod=200
.step run=883 rod=200
.step run=884 rod=200
.step run=885 rod=200
.step run=886 rod=200
.step run=887 rod=200
.step run=888 rod=200
.step run=889 rod=200
.step run=890 rod=200
.step run=891 rod=200
.step run=892 rod=200
.step run=893 rod=200
.step run=894 rod=200
.step run=895 rod=200
.step run=896 rod=200
.step run=897 rod=200
.step run=898 rod=200
.step run=899 rod=200
.step run=900 rod=200
.step run=901 rod=200
.step run=902 rod=200
.step run=903 rod=200
.step run=904 rod=200
.step run=905 rod=200
.step run=906 rod=200
.step run=907 rod=200
.step run=908 rod=200
.step run=909 rod=200
.step run=910 rod=200
.step run=911 rod=200
.step run=912 rod=200
.step run=913 rod=200
.step run=914 rod=200
.step run=915 rod=200
.step run=916 rod=200
.step run=917 rod=200
.step run=918 rod=200
.step run=919 rod=200
.step run=920 rod=200
.step run=921 rod=200
.step run=922 rod=200
.step run=923 rod=200
.step run=924 rod=200
.step run=925 rod=200
.step run=926 rod=200
.step run=927 rod=200
.step run=928 rod=200
.step run=929 rod=200
.step run=930 rod=200
.step run=931 rod=200
.step run=932 rod=200
.step run=933 rod=200
.step run=934 rod=200
.step run=935 rod=200
.step run=936 rod=200
.step run=937 rod=200
.step run=938 rod=200
.step run=939 rod=200
.step run=940 rod=200
.step run=941 rod=200
.step run=942 rod=200
.step run=943 rod=200
.step run=944 rod=200
.step run=945 rod=200
.step run=946 rod=200
.step run=947 rod=200
.step run=948 rod=200
.step run=949 rod=200
.step run=950 rod=200
.step run=951 rod=200
.step run=952 rod=200
.step run=953 rod=200
.step run=954 rod=200
.step run=955 rod=200
.step run=956 rod=200
.step run=957 rod=200
.step run=958 rod=200
.step run=959 rod=200
.step run=960 rod=200
.step run=961 rod=200
.step run=962 rod=200
.step run=963 rod=200
.step run=964 rod=200
.step run=965 rod=200
.step run=966 rod=200
.step run=967 rod=200
.step run=968 rod=200
.step run=969 rod=200
.step run=970 rod=200
.step run=971 rod=200
.step run=972 rod=200
.step run=973 rod=200
.step run=974 rod=200
.step run=975 rod=200
.step run=976 rod=200
.step run=977 rod=200
.step run=978 rod=200
.step run=979 rod=200
.step run=980 rod=200
.step run=981 rod=200
.step run=982 rod=200
.step run=983 rod=200
.step run=984 rod=200
.step run=985 rod=200
.step run=986 rod=200
.step run=987 rod=200
.step run=988 rod=200
.step run=989 rod=200
.step run=990 rod=200
.step run=991 rod=200
.step run=992 rod=200
.step run=993 rod=200
.step run=994 rod=200
.step run=995 rod=200
.step run=996 rod=200
.step run=997 rod=200
.step run=998 rod=200
.step run=999 rod=200
.step run=1000 rod=200
.step run=1 rod=400
.step run=2 rod=400
.step run=3 rod=400
.step run=4 rod=400
.step run=5 rod=400
.step run=6 rod=400
.step run=7 rod=400
.step run=8 rod=400
.step run=9 rod=400
.step run=10 rod=400
.step run=11 rod=400
.step run=12 rod=400
.step run=13 rod=400
.step run=14 rod=400
.step run=15 rod=400
.step run=16 rod=400
.step run=17 rod=400
.step run=18 rod=400
.step run=19 rod=400
.step run=20 rod=400
.step run=21 rod=400
.step run=22 rod=400
.step run=23 rod=400
.step run=24 rod=400
.step run=25 rod=400
.step run=26 rod=400
.step run=27 rod=400
.step run=28 rod=400
.step run=29 rod=400
.step run=30 rod=400
.step run=31 rod=400
.step run=32 rod=400
.step run=33 rod=400
.step run=34 rod=400
.step run=35 rod=400
.step run=36 rod=400
.step run=37 rod=400
.step run=38 rod=400
.step run=39 rod=400
.step run=40 rod=400
.step run=41 rod=400
.step run=42 rod=400
.step run=43 rod=400
.step run=44 rod=400
.step run=45 rod=400
.step run=46 rod=400
.step run=47 rod=400
.step run=48 rod=400
.step run=49 rod=400
.step run=50 rod=400
.step run=51 rod=400
.step run=52 rod=400
.step run=53 rod=400
.step run=54 rod=400
.step run=55 rod=400
.step run=56 rod=400
.step run=57 rod=400
.step run=58 rod=400
.step run=59 rod=400
.step run=60 rod=400
.step run=61 rod=400
.step run=62 rod=400
.step run=63 rod=400
.step run=64 rod=400
.step run=65 rod=400
.step run=66 rod=400
.step run=67 rod=400
.step run=68 rod=400
.step run=69 rod=400
.step run=70 rod=400
.step run=71 rod=400
.step run=72 rod=400
.step run=73 rod=400
.step run=74 rod=400
.step run=75 rod=400
.step run=76 rod=400
.step run=77 rod=400
.step run=78 rod=400
.step run=79 rod=400
.step run=80 rod=400
.step run=81 rod=400
.step run=82 rod=400
.step run=83 rod=400
.step run=84 rod=400
.step run=85 rod=400
.step run=86 rod=400
.step run=87 rod=400
.step run=88 rod=400
.step run=89 rod=400
.step run=90 rod=400
.step run=91 rod=400
.step run=92 rod=400
.step run=93 rod=400
.step run=94 rod=400
.step run=95 rod=400
.step run=96 rod=400
.step run=97 rod=400
.step run=98 rod=400
.step run=99 rod=400
.step run=100 rod=400
.step run=101 rod=400
.step run=102 rod=400
.step run=103 rod=400
.step run=104 rod=400
.step run=105 rod=400
.step run=106 rod=400
.step run=107 rod=400
.step run=108 rod=400
.step run=109 rod=400
.step run=110 rod=400
.step run=111 rod=400
.step run=112 rod=400
.step run=113 rod=400
.step run=114 rod=400
.step run=115 rod=400
.step run=116 rod=400
.step run=117 rod=400
.step run=118 rod=400
.step run=119 rod=400
.step run=120 rod=400
.step run=121 rod=400
.step run=122 rod=400
.step run=123 rod=400
.step run=124 rod=400
.step run=125 rod=400
.step run=126 rod=400
.step run=127 rod=400
.step run=128 rod=400
.step run=129 rod=400
.step run=130 rod=400
.step run=131 rod=400
.step run=132 rod=400
.step run=133 rod=400
.step run=134 rod=400
.step run=135 rod=400
.step run=136 rod=400
.step run=137 rod=400
.step run=138 rod=400
.step run=139 rod=400
.step run=140 rod=400
.step run=141 rod=400
.step run=142 rod=400
.step run=143 rod=400
.step run=144 rod=400
.step run=145 rod=400
.step run=146 rod=400
.step run=147 rod=400
.step run=148 rod=400
.step run=149 rod=400
.step run=150 rod=400
.step run=151 rod=400
.step run=152 rod=400
.step run=153 rod=400
.step run=154 rod=400
.step run=155 rod=400
.step run=156 rod=400
.step run=157 rod=400
.step run=158 rod=400
.step run=159 rod=400
.step run=160 rod=400
.step run=161 rod=400
.step run=162 rod=400
.step run=163 rod=400
.step run=164 rod=400
.step run=165 rod=400
.step run=166 rod=400
.step run=167 rod=400
.step run=168 rod=400
.step run=169 rod=400
.step run=170 rod=400
.step run=171 rod=400
.step run=172 rod=400
.step run=173 rod=400
.step run=174 rod=400
.step run=175 rod=400
.step run=176 rod=400
.step run=177 rod=400
.step run=178 rod=400
.step run=179 rod=400
.step run=180 rod=400
.step run=181 rod=400
.step run=182 rod=400
.step run=183 rod=400
.step run=184 rod=400
.step run=185 rod=400
.step run=186 rod=400
.step run=187 rod=400
.step run=188 rod=400
.step run=189 rod=400
.step run=190 rod=400
.step run=191 rod=400
.step run=192 rod=400
.step run=193 rod=400
.step run=194 rod=400
.step run=195 rod=400
.step run=196 rod=400
.step run=197 rod=400
.step run=198 rod=400
.step run=199 rod=400
.step run=200 rod=400
.step run=201 rod=400
.step run=202 rod=400
.step run=203 rod=400
.step run=204 rod=400
.step run=205 rod=400
.step run=206 rod=400
.step run=207 rod=400
.step run=208 rod=400
.step run=209 rod=400
.step run=210 rod=400
.step run=211 rod=400
.step run=212 rod=400
.step run=213 rod=400
.step run=214 rod=400
.step run=215 rod=400
.step run=216 rod=400
.step run=217 rod=400
.step run=218 rod=400
.step run=219 rod=400
.step run=220 rod=400
.step run=221 rod=400
.step run=222 rod=400
.step run=223 rod=400
.step run=224 rod=400
.step run=225 rod=400
.step run=226 rod=400
.step run=227 rod=400
.step run=228 rod=400
.step run=229 rod=400
.step run=230 rod=400
.step run=231 rod=400
.step run=232 rod=400
.step run=233 rod=400
.step run=234 rod=400
.step run=235 rod=400
.step run=236 rod=400
.step run=237 rod=400
.step run=238 rod=400
.step run=239 rod=400
.step run=240 rod=400
.step run=241 rod=400
.step run=242 rod=400
.step run=243 rod=400
.step run=244 rod=400
.step run=245 rod=400
.step run=246 rod=400
.step run=247 rod=400
.step run=248 rod=400
.step run=249 rod=400
.step run=250 rod=400
.step run=251 rod=400
.step run=252 rod=400
.step run=253 rod=400
.step run=254 rod=400
.step run=255 rod=400
.step run=256 rod=400
.step run=257 rod=400
.step run=258 rod=400
.step run=259 rod=400
.step run=260 rod=400
.step run=261 rod=400
.step run=262 rod=400
.step run=263 rod=400
.step run=264 rod=400
.step run=265 rod=400
.step run=266 rod=400
.step run=267 rod=400
.step run=268 rod=400
.step run=269 rod=400
.step run=270 rod=400
.step run=271 rod=400
.step run=272 rod=400
.step run=273 rod=400
.step run=274 rod=400
.step run=275 rod=400
.step run=276 rod=400
.step run=277 rod=400
.step run=278 rod=400
.step run=279 rod=400
.step run=280 rod=400
.step run=281 rod=400
.step run=282 rod=400
.step run=283 rod=400
.step run=284 rod=400
.step run=285 rod=400
.step run=286 rod=400
.step run=287 rod=400
.step run=288 rod=400
.step run=289 rod=400
.step run=290 rod=400
.step run=291 rod=400
.step run=292 rod=400
.step run=293 rod=400
.step run=294 rod=400
.step run=295 rod=400
.step run=296 rod=400
.step run=297 rod=400
.step run=298 rod=400
.step run=299 rod=400
.step run=300 rod=400
.step run=301 rod=400
.step run=302 rod=400
.step run=303 rod=400
.step run=304 rod=400
.step run=305 rod=400
.step run=306 rod=400
.step run=307 rod=400
.step run=308 rod=400
.step run=309 rod=400
.step run=310 rod=400
.step run=311 rod=400
.step run=312 rod=400
.step run=313 rod=400
.step run=314 rod=400
.step run=315 rod=400
.step run=316 rod=400
.step run=317 rod=400
.step run=318 rod=400
.step run=319 rod=400
.step run=320 rod=400
.step run=321 rod=400
.step run=322 rod=400
.step run=323 rod=400
.step run=324 rod=400
.step run=325 rod=400
.step run=326 rod=400
.step run=327 rod=400
.step run=328 rod=400
.step run=329 rod=400
.step run=330 rod=400
.step run=331 rod=400
.step run=332 rod=400
.step run=333 rod=400
.step run=334 rod=400
.step run=335 rod=400
.step run=336 rod=400
.step run=337 rod=400
.step run=338 rod=400
.step run=339 rod=400
.step run=340 rod=400
.step run=341 rod=400
.step run=342 rod=400
.step run=343 rod=400
.step run=344 rod=400
.step run=345 rod=400
.step run=346 rod=400
.step run=347 rod=400
.step run=348 rod=400
.step run=349 rod=400
.step run=350 rod=400
.step run=351 rod=400
.step run=352 rod=400
.step run=353 rod=400
.step run=354 rod=400
.step run=355 rod=400
.step run=356 rod=400
.step run=357 rod=400
.step run=358 rod=400
.step run=359 rod=400
.step run=360 rod=400
.step run=361 rod=400
.step run=362 rod=400
.step run=363 rod=400
.step run=364 rod=400
.step run=365 rod=400
.step run=366 rod=400
.step run=367 rod=400
.step run=368 rod=400
.step run=369 rod=400
.step run=370 rod=400
.step run=371 rod=400
.step run=372 rod=400
.step run=373 rod=400
.step run=374 rod=400
.step run=375 rod=400
.step run=376 rod=400
.step run=377 rod=400
.step run=378 rod=400
.step run=379 rod=400
.step run=380 rod=400
.step run=381 rod=400
.step run=382 rod=400
.step run=383 rod=400
.step run=384 rod=400
.step run=385 rod=400
.step run=386 rod=400
.step run=387 rod=400
.step run=388 rod=400
.step run=389 rod=400
.step run=390 rod=400
.step run=391 rod=400
.step run=392 rod=400
.step run=393 rod=400
.step run=394 rod=400
.step run=395 rod=400
.step run=396 rod=400
.step run=397 rod=400
.step run=398 rod=400
.step run=399 rod=400
.step run=400 rod=400
.step run=401 rod=400
.step run=402 rod=400
.step run=403 rod=400
.step run=404 rod=400
.step run=405 rod=400
.step run=406 rod=400
.step run=407 rod=400
.step run=408 rod=400
.step run=409 rod=400
.step run=410 rod=400
.step run=411 rod=400
.step run=412 rod=400
.step run=413 rod=400
.step run=414 rod=400
.step run=415 rod=400
.step run=416 rod=400
.step run=417 rod=400
.step run=418 rod=400
.step run=419 rod=400
.step run=420 rod=400
.step run=421 rod=400
.step run=422 rod=400
.step run=423 rod=400
.step run=424 rod=400
.step run=425 rod=400
.step run=426 rod=400
.step run=427 rod=400
.step run=428 rod=400
.step run=429 rod=400
.step run=430 rod=400
.step run=431 rod=400
.step run=432 rod=400
.step run=433 rod=400
.step run=434 rod=400
.step run=435 rod=400
.step run=436 rod=400
.step run=437 rod=400
.step run=438 rod=400
.step run=439 rod=400
.step run=440 rod=400
.step run=441 rod=400
.step run=442 rod=400
.step run=443 rod=400
.step run=444 rod=400
.step run=445 rod=400
.step run=446 rod=400
.step run=447 rod=400
.step run=448 rod=400
.step run=449 rod=400
.step run=450 rod=400
.step run=451 rod=400
.step run=452 rod=400
.step run=453 rod=400
.step run=454 rod=400
.step run=455 rod=400
.step run=456 rod=400
.step run=457 rod=400
.step run=458 rod=400
.step run=459 rod=400
.step run=460 rod=400
.step run=461 rod=400
.step run=462 rod=400
.step run=463 rod=400
.step run=464 rod=400
.step run=465 rod=400
.step run=466 rod=400
.step run=467 rod=400
.step run=468 rod=400
.step run=469 rod=400
.step run=470 rod=400
.step run=471 rod=400
.step run=472 rod=400
.step run=473 rod=400
.step run=474 rod=400
.step run=475 rod=400
.step run=476 rod=400
.step run=477 rod=400
.step run=478 rod=400
.step run=479 rod=400
.step run=480 rod=400
.step run=481 rod=400
.step run=482 rod=400
.step run=483 rod=400
.step run=484 rod=400
.step run=485 rod=400
.step run=486 rod=400
.step run=487 rod=400
.step run=488 rod=400
.step run=489 rod=400
.step run=490 rod=400
.step run=491 rod=400
.step run=492 rod=400
.step run=493 rod=400
.step run=494 rod=400
.step run=495 rod=400
.step run=496 rod=400
.step run=497 rod=400
.step run=498 rod=400
.step run=499 rod=400
.step run=500 rod=400
.step run=501 rod=400
.step run=502 rod=400
.step run=503 rod=400
.step run=504 rod=400
.step run=505 rod=400
.step run=506 rod=400
.step run=507 rod=400
.step run=508 rod=400
.step run=509 rod=400
.step run=510 rod=400
.step run=511 rod=400
.step run=512 rod=400
.step run=513 rod=400
.step run=514 rod=400
.step run=515 rod=400
.step run=516 rod=400
.step run=517 rod=400
.step run=518 rod=400
.step run=519 rod=400
.step run=520 rod=400
.step run=521 rod=400
.step run=522 rod=400
.step run=523 rod=400
.step run=524 rod=400
.step run=525 rod=400
.step run=526 rod=400
.step run=527 rod=400
.step run=528 rod=400
.step run=529 rod=400
.step run=530 rod=400
.step run=531 rod=400
.step run=532 rod=400
.step run=533 rod=400
.step run=534 rod=400
.step run=535 rod=400
.step run=536 rod=400
.step run=537 rod=400
.step run=538 rod=400
.step run=539 rod=400
.step run=540 rod=400
.step run=541 rod=400
.step run=542 rod=400
.step run=543 rod=400
.step run=544 rod=400
.step run=545 rod=400
.step run=546 rod=400
.step run=547 rod=400
.step run=548 rod=400
.step run=549 rod=400
.step run=550 rod=400
.step run=551 rod=400
.step run=552 rod=400
.step run=553 rod=400
.step run=554 rod=400
.step run=555 rod=400
.step run=556 rod=400
.step run=557 rod=400
.step run=558 rod=400
.step run=559 rod=400
.step run=560 rod=400
.step run=561 rod=400
.step run=562 rod=400
.step run=563 rod=400
.step run=564 rod=400
.step run=565 rod=400
.step run=566 rod=400
.step run=567 rod=400
.step run=568 rod=400
.step run=569 rod=400
.step run=570 rod=400
.step run=571 rod=400
.step run=572 rod=400
.step run=573 rod=400
.step run=574 rod=400
.step run=575 rod=400
.step run=576 rod=400
.step run=577 rod=400
.step run=578 rod=400
.step run=579 rod=400
.step run=580 rod=400
.step run=581 rod=400
.step run=582 rod=400
.step run=583 rod=400
.step run=584 rod=400
.step run=585 rod=400
.step run=586 rod=400
.step run=587 rod=400
.step run=588 rod=400
.step run=589 rod=400
.step run=590 rod=400
.step run=591 rod=400
.step run=592 rod=400
.step run=593 rod=400
.step run=594 rod=400
.step run=595 rod=400
.step run=596 rod=400
.step run=597 rod=400
.step run=598 rod=400
.step run=599 rod=400
.step run=600 rod=400
.step run=601 rod=400
.step run=602 rod=400
.step run=603 rod=400
.step run=604 rod=400
.step run=605 rod=400
.step run=606 rod=400
.step run=607 rod=400
.step run=608 rod=400
.step run=609 rod=400
.step run=610 rod=400
.step run=611 rod=400
.step run=612 rod=400
.step run=613 rod=400
.step run=614 rod=400
.step run=615 rod=400
.step run=616 rod=400
.step run=617 rod=400
.step run=618 rod=400
.step run=619 rod=400
.step run=620 rod=400
.step run=621 rod=400
.step run=622 rod=400
.step run=623 rod=400
.step run=624 rod=400
.step run=625 rod=400
.step run=626 rod=400
.step run=627 rod=400
.step run=628 rod=400
.step run=629 rod=400
.step run=630 rod=400
.step run=631 rod=400
.step run=632 rod=400
.step run=633 rod=400
.step run=634 rod=400
.step run=635 rod=400
.step run=636 rod=400
.step run=637 rod=400
.step run=638 rod=400
.step run=639 rod=400
.step run=640 rod=400
.step run=641 rod=400
.step run=642 rod=400
.step run=643 rod=400
.step run=644 rod=400
.step run=645 rod=400
.step run=646 rod=400
.step run=647 rod=400
.step run=648 rod=400
.step run=649 rod=400
.step run=650 rod=400
.step run=651 rod=400
.step run=652 rod=400
.step run=653 rod=400
.step run=654 rod=400
.step run=655 rod=400
.step run=656 rod=400
.step run=657 rod=400
.step run=658 rod=400
.step run=659 rod=400
.step run=660 rod=400
.step run=661 rod=400
.step run=662 rod=400
.step run=663 rod=400
.step run=664 rod=400
.step run=665 rod=400
.step run=666 rod=400
.step run=667 rod=400
.step run=668 rod=400
.step run=669 rod=400
.step run=670 rod=400
.step run=671 rod=400
.step run=672 rod=400
.step run=673 rod=400
.step run=674 rod=400
.step run=675 rod=400
.step run=676 rod=400
.step run=677 rod=400
.step run=678 rod=400
.step run=679 rod=400
.step run=680 rod=400
.step run=681 rod=400
.step run=682 rod=400
.step run=683 rod=400
.step run=684 rod=400
.step run=685 rod=400
.step run=686 rod=400
.step run=687 rod=400
.step run=688 rod=400
.step run=689 rod=400
.step run=690 rod=400
.step run=691 rod=400
.step run=692 rod=400
.step run=693 rod=400
.step run=694 rod=400
.step run=695 rod=400
.step run=696 rod=400
.step run=697 rod=400
.step run=698 rod=400
.step run=699 rod=400
.step run=700 rod=400
.step run=701 rod=400
.step run=702 rod=400
.step run=703 rod=400
.step run=704 rod=400
.step run=705 rod=400
.step run=706 rod=400
.step run=707 rod=400
.step run=708 rod=400
.step run=709 rod=400
.step run=710 rod=400
.step run=711 rod=400
.step run=712 rod=400
.step run=713 rod=400
.step run=714 rod=400
.step run=715 rod=400
.step run=716 rod=400
.step run=717 rod=400
.step run=718 rod=400
.step run=719 rod=400
.step run=720 rod=400
.step run=721 rod=400
.step run=722 rod=400
.step run=723 rod=400
.step run=724 rod=400
.step run=725 rod=400
.step run=726 rod=400
.step run=727 rod=400
.step run=728 rod=400
.step run=729 rod=400
.step run=730 rod=400
.step run=731 rod=400
.step run=732 rod=400
.step run=733 rod=400
.step run=734 rod=400
.step run=735 rod=400
.step run=736 rod=400
.step run=737 rod=400
.step run=738 rod=400
.step run=739 rod=400
.step run=740 rod=400
.step run=741 rod=400
.step run=742 rod=400
.step run=743 rod=400
.step run=744 rod=400
.step run=745 rod=400
.step run=746 rod=400
.step run=747 rod=400
.step run=748 rod=400
.step run=749 rod=400
.step run=750 rod=400
.step run=751 rod=400
.step run=752 rod=400
.step run=753 rod=400
.step run=754 rod=400
.step run=755 rod=400
.step run=756 rod=400
.step run=757 rod=400
.step run=758 rod=400
.step run=759 rod=400
.step run=760 rod=400
.step run=761 rod=400
.step run=762 rod=400
.step run=763 rod=400
.step run=764 rod=400
.step run=765 rod=400
.step run=766 rod=400
.step run=767 rod=400
.step run=768 rod=400
.step run=769 rod=400
.step run=770 rod=400
.step run=771 rod=400
.step run=772 rod=400
.step run=773 rod=400
.step run=774 rod=400
.step run=775 rod=400
.step run=776 rod=400
.step run=777 rod=400
.step run=778 rod=400
.step run=779 rod=400
.step run=780 rod=400
.step run=781 rod=400
.step run=782 rod=400
.step run=783 rod=400
.step run=784 rod=400
.step run=785 rod=400
.step run=786 rod=400
.step run=787 rod=400
.step run=788 rod=400
.step run=789 rod=400
.step run=790 rod=400
.step run=791 rod=400
.step run=792 rod=400
.step run=793 rod=400
.step run=794 rod=400
.step run=795 rod=400
.step run=796 rod=400
.step run=797 rod=400
.step run=798 rod=400
.step run=799 rod=400
.step run=800 rod=400
.step run=801 rod=400
.step run=802 rod=400
.step run=803 rod=400
.step run=804 rod=400
.step run=805 rod=400
.step run=806 rod=400
.step run=807 rod=400
.step run=808 rod=400
.step run=809 rod=400
.step run=810 rod=400
.step run=811 rod=400
.step run=812 rod=400
.step run=813 rod=400
.step run=814 rod=400
.step run=815 rod=400
.step run=816 rod=400
.step run=817 rod=400
.step run=818 rod=400
.step run=819 rod=400
.step run=820 rod=400
.step run=821 rod=400
.step run=822 rod=400
.step run=823 rod=400
.step run=824 rod=400
.step run=825 rod=400
.step run=826 rod=400
.step run=827 rod=400
.step run=828 rod=400
.step run=829 rod=400
.step run=830 rod=400
.step run=831 rod=400
.step run=832 rod=400
.step run=833 rod=400
.step run=834 rod=400
.step run=835 rod=400
.step run=836 rod=400
.step run=837 rod=400
.step run=838 rod=400
.step run=839 rod=400
.step run=840 rod=400
.step run=841 rod=400
.step run=842 rod=400
.step run=843 rod=400
.step run=844 rod=400
.step run=845 rod=400
.step run=846 rod=400
.step run=847 rod=400
.step run=848 rod=400
.step run=849 rod=400
.step run=850 rod=400
.step run=851 rod=400
.step run=852 rod=400
.step run=853 rod=400
.step run=854 rod=400
.step run=855 rod=400
.step run=856 rod=400
.step run=857 rod=400
.step run=858 rod=400
.step run=859 rod=400
.step run=860 rod=400
.step run=861 rod=400
.step run=862 rod=400
.step run=863 rod=400
.step run=864 rod=400
.step run=865 rod=400
.step run=866 rod=400
.step run=867 rod=400
.step run=868 rod=400
.step run=869 rod=400
.step run=870 rod=400
.step run=871 rod=400
.step run=872 rod=400
.step run=873 rod=400
.step run=874 rod=400
.step run=875 rod=400
.step run=876 rod=400
.step run=877 rod=400
.step run=878 rod=400
.step run=879 rod=400
.step run=880 rod=400
.step run=881 rod=400
.step run=882 rod=400
.step run=883 rod=400
.step run=884 rod=400
.step run=885 rod=400
.step run=886 rod=400
.step run=887 rod=400
.step run=888 rod=400
.step run=889 rod=400
.step run=890 rod=400
.step run=891 rod=400
.step run=892 rod=400
.step run=893 rod=400
.step run=894 rod=400
.step run=895 rod=400
.step run=896 rod=400
.step run=897 rod=400
.step run=898 rod=400
.step run=899 rod=400
.step run=900 rod=400
.step run=901 rod=400
.step run=902 rod=400
.step run=903 rod=400
.step run=904 rod=400
.step run=905 rod=400
.step run=906 rod=400
.step run=907 rod=400
.step run=908 rod=400
.step run=909 rod=400
.step run=910 rod=400
.step run=911 rod=400
.step run=912 rod=400
.step run=913 rod=400
.step run=914 rod=400
.step run=915 rod=400
.step run=916 rod=400
.step run=917 rod=400
.step run=918 rod=400
.step run=919 rod=400
.step run=920 rod=400
.step run=921 rod=400
.step run=922 rod=400
.step run=923 rod=400
.step run=924 rod=400
.step run=925 rod=400
.step run=926 rod=400
.step run=927 rod=400
.step run=928 rod=400
.step run=929 rod=400
.step run=930 rod=400
.step run=931 rod=400
.step run=932 rod=400
.step run=933 rod=400
.step run=934 rod=400
.step run=935 rod=400
.step run=936 rod=400
.step run=937 rod=400
.step run=938 rod=400
.step run=939 rod=400
.step run=940 rod=400
.step run=941 rod=400
.step run=942 rod=400
.step run=943 rod=400
.step run=944 rod=400
.step run=945 rod=400
.step run=946 rod=400
.step run=947 rod=400
.step run=948 rod=400
.step run=949 rod=400
.step run=950 rod=400
.step run=951 rod=400
.step run=952 rod=400
.step run=953 rod=400
.step run=954 rod=400
.step run=955 rod=400
.step run=956 rod=400
.step run=957 rod=400
.step run=958 rod=400
.step run=959 rod=400
.step run=960 rod=400
.step run=961 rod=400
.step run=962 rod=400
.step run=963 rod=400
.step run=964 rod=400
.step run=965 rod=400
.step run=966 rod=400
.step run=967 rod=400
.step run=968 rod=400
.step run=969 rod=400
.step run=970 rod=400
.step run=971 rod=400
.step run=972 rod=400
.step run=973 rod=400
.step run=974 rod=400
.step run=975 rod=400
.step run=976 rod=400
.step run=977 rod=400
.step run=978 rod=400
.step run=979 rod=400
.step run=980 rod=400
.step run=981 rod=400
.step run=982 rod=400
.step run=983 rod=400
.step run=984 rod=400
.step run=985 rod=400
.step run=986 rod=400
.step run=987 rod=400
.step run=988 rod=400
.step run=989 rod=400
.step run=990 rod=400
.step run=991 rod=400
.step run=992 rod=400
.step run=993 rod=400
.step run=994 rod=400
.step run=995 rod=400
.step run=996 rod=400
.step run=997 rod=400
.step run=998 rod=400
.step run=999 rod=400
.step run=1000 rod=400

Date: Sun Nov 29 17:45:25 2020
Total elapsed time: 325.836 seconds.

tnom = 27
temp = 27
method = modified trap
totiter = 1069
traniter = 1065
tranpoints = 527
accept = 526
rejected = 1
matrix size = 16
fillins = 0
solver = Normal
Matrix Compiler1: 448 bytes object code size  0.2/0.1/[0.1]
Matrix Compiler2: 908 bytes object code size  0.1/0.2/[0.1]

