Circuit: * C:\Users\Lorne\Desktop\Personal Projects\Currently Active\FWA 2022 - Compass Badge\Electrical\Simulations\FWA_2020-2022_Compass_Multivibrator_Sim.asc

Direct Newton iteration for .op point succeeded.

Date: Wed May 04 20:07:57 2022
Total elapsed time: 0.845 seconds.

tnom = 27
temp = 27
method = modified trap
totiter = 54944
traniter = 54936
tranpoints = 14207
accept = 10687
rejected = 3520
matrix size = 20
fillins = 14
solver = Normal
Matrix Compiler1: 2.41 KB object code size  0.6/0.5/[0.4]
Matrix Compiler2: off  [0.3]/0.7/0.5

